*SPEF "ieee 1481-1999"
*DESIGN "user_project_wrapper"
*DATE "11:11:11 Fri 11 11, 1111"
*VENDOR "OpenRCX"
*PROGRAM "Parallel Extraction"
*VERSION "1.0"
*DESIGN_FLOW "NAME_SCOPE LOCAL" "PIN_CAP NONE"
*DIVIDER /
*DELIMITER :
*BUS_DELIMITER []
*T_UNIT 1 NS
*C_UNIT 1 PF
*R_UNIT 1 OHM
*L_UNIT 1 HENRY

*NAME_MAP
*1 io_in[0]
*2 io_in[10]
*3 io_in[11]
*4 io_in[12]
*5 io_in[13]
*6 io_in[14]
*7 io_in[15]
*8 io_in[16]
*9 io_in[17]
*10 io_in[18]
*11 io_in[19]
*12 io_in[1]
*13 io_in[20]
*14 io_in[21]
*15 io_in[22]
*16 io_in[23]
*17 io_in[24]
*18 io_in[25]
*19 io_in[26]
*20 io_in[27]
*21 io_in[28]
*22 io_in[29]
*23 io_in[2]
*24 io_in[30]
*25 io_in[31]
*26 io_in[32]
*27 io_in[33]
*28 io_in[34]
*29 io_in[35]
*30 io_in[36]
*31 io_in[37]
*32 io_in[3]
*33 io_in[4]
*34 io_in[5]
*35 io_in[6]
*36 io_in[7]
*37 io_in[8]
*38 io_in[9]
*39 io_oeb[0]
*40 io_oeb[10]
*41 io_oeb[11]
*42 io_oeb[12]
*43 io_oeb[13]
*44 io_oeb[14]
*45 io_oeb[15]
*46 io_oeb[16]
*47 io_oeb[17]
*48 io_oeb[18]
*49 io_oeb[19]
*50 io_oeb[1]
*51 io_oeb[20]
*52 io_oeb[21]
*53 io_oeb[22]
*54 io_oeb[23]
*55 io_oeb[24]
*56 io_oeb[25]
*57 io_oeb[26]
*58 io_oeb[27]
*59 io_oeb[28]
*60 io_oeb[29]
*61 io_oeb[2]
*62 io_oeb[30]
*63 io_oeb[31]
*64 io_oeb[32]
*65 io_oeb[33]
*66 io_oeb[34]
*67 io_oeb[35]
*68 io_oeb[36]
*69 io_oeb[37]
*70 io_oeb[3]
*71 io_oeb[4]
*72 io_oeb[5]
*73 io_oeb[6]
*74 io_oeb[7]
*75 io_oeb[8]
*76 io_oeb[9]
*77 io_out[0]
*78 io_out[10]
*79 io_out[11]
*80 io_out[12]
*81 io_out[13]
*82 io_out[14]
*83 io_out[15]
*84 io_out[16]
*85 io_out[17]
*86 io_out[18]
*87 io_out[19]
*88 io_out[1]
*89 io_out[20]
*90 io_out[21]
*91 io_out[22]
*92 io_out[23]
*93 io_out[24]
*94 io_out[25]
*95 io_out[26]
*96 io_out[27]
*97 io_out[28]
*98 io_out[29]
*99 io_out[2]
*100 io_out[30]
*101 io_out[31]
*102 io_out[32]
*103 io_out[33]
*104 io_out[34]
*105 io_out[35]
*106 io_out[36]
*107 io_out[37]
*108 io_out[3]
*109 io_out[4]
*110 io_out[5]
*111 io_out[6]
*112 io_out[7]
*113 io_out[8]
*114 io_out[9]
*115 la_data_in[0]
*116 la_data_in[10]
*117 la_data_in[11]
*118 la_data_in[12]
*119 la_data_in[13]
*120 la_data_in[14]
*121 la_data_in[15]
*122 la_data_in[16]
*123 la_data_in[17]
*124 la_data_in[18]
*125 la_data_in[19]
*126 la_data_in[1]
*127 la_data_in[20]
*128 la_data_in[21]
*129 la_data_in[22]
*130 la_data_in[23]
*131 la_data_in[24]
*132 la_data_in[25]
*133 la_data_in[26]
*134 la_data_in[27]
*135 la_data_in[28]
*136 la_data_in[29]
*137 la_data_in[2]
*138 la_data_in[30]
*139 la_data_in[31]
*140 la_data_in[32]
*141 la_data_in[33]
*142 la_data_in[34]
*143 la_data_in[35]
*144 la_data_in[36]
*145 la_data_in[37]
*146 la_data_in[38]
*147 la_data_in[39]
*148 la_data_in[3]
*149 la_data_in[40]
*150 la_data_in[41]
*151 la_data_in[42]
*152 la_data_in[43]
*153 la_data_in[44]
*154 la_data_in[45]
*155 la_data_in[46]
*156 la_data_in[47]
*157 la_data_in[48]
*158 la_data_in[49]
*159 la_data_in[4]
*160 la_data_in[50]
*161 la_data_in[51]
*162 la_data_in[52]
*163 la_data_in[53]
*164 la_data_in[54]
*165 la_data_in[55]
*166 la_data_in[56]
*167 la_data_in[57]
*168 la_data_in[58]
*169 la_data_in[59]
*170 la_data_in[5]
*171 la_data_in[60]
*172 la_data_in[61]
*173 la_data_in[62]
*174 la_data_in[63]
*175 la_data_in[6]
*176 la_data_in[7]
*177 la_data_in[8]
*178 la_data_in[9]
*179 la_data_out[0]
*180 la_data_out[10]
*181 la_data_out[11]
*182 la_data_out[12]
*183 la_data_out[13]
*184 la_data_out[14]
*185 la_data_out[15]
*186 la_data_out[16]
*187 la_data_out[17]
*188 la_data_out[18]
*189 la_data_out[19]
*190 la_data_out[1]
*191 la_data_out[20]
*192 la_data_out[21]
*193 la_data_out[22]
*194 la_data_out[23]
*195 la_data_out[24]
*196 la_data_out[25]
*197 la_data_out[26]
*198 la_data_out[27]
*199 la_data_out[28]
*200 la_data_out[29]
*201 la_data_out[2]
*202 la_data_out[30]
*203 la_data_out[31]
*204 la_data_out[32]
*205 la_data_out[33]
*206 la_data_out[34]
*207 la_data_out[35]
*208 la_data_out[36]
*209 la_data_out[37]
*210 la_data_out[38]
*211 la_data_out[39]
*212 la_data_out[3]
*213 la_data_out[40]
*214 la_data_out[41]
*215 la_data_out[42]
*216 la_data_out[43]
*217 la_data_out[44]
*218 la_data_out[45]
*219 la_data_out[46]
*220 la_data_out[47]
*221 la_data_out[48]
*222 la_data_out[49]
*223 la_data_out[4]
*224 la_data_out[50]
*225 la_data_out[51]
*226 la_data_out[52]
*227 la_data_out[53]
*228 la_data_out[54]
*229 la_data_out[55]
*230 la_data_out[56]
*231 la_data_out[57]
*232 la_data_out[58]
*233 la_data_out[59]
*234 la_data_out[5]
*235 la_data_out[60]
*236 la_data_out[61]
*237 la_data_out[62]
*238 la_data_out[63]
*239 la_data_out[6]
*240 la_data_out[7]
*241 la_data_out[8]
*242 la_data_out[9]
*243 la_oenb[0]
*244 la_oenb[10]
*245 la_oenb[11]
*246 la_oenb[12]
*247 la_oenb[13]
*248 la_oenb[14]
*249 la_oenb[15]
*250 la_oenb[16]
*251 la_oenb[17]
*252 la_oenb[18]
*253 la_oenb[19]
*254 la_oenb[1]
*255 la_oenb[20]
*256 la_oenb[21]
*257 la_oenb[22]
*258 la_oenb[23]
*259 la_oenb[24]
*260 la_oenb[25]
*261 la_oenb[26]
*262 la_oenb[27]
*263 la_oenb[28]
*264 la_oenb[29]
*265 la_oenb[2]
*266 la_oenb[30]
*267 la_oenb[31]
*268 la_oenb[32]
*269 la_oenb[33]
*270 la_oenb[34]
*271 la_oenb[35]
*272 la_oenb[36]
*273 la_oenb[37]
*274 la_oenb[38]
*275 la_oenb[39]
*276 la_oenb[3]
*277 la_oenb[40]
*278 la_oenb[41]
*279 la_oenb[42]
*280 la_oenb[43]
*281 la_oenb[44]
*282 la_oenb[45]
*283 la_oenb[46]
*284 la_oenb[47]
*285 la_oenb[48]
*286 la_oenb[49]
*287 la_oenb[4]
*288 la_oenb[50]
*289 la_oenb[51]
*290 la_oenb[52]
*291 la_oenb[53]
*292 la_oenb[54]
*293 la_oenb[55]
*294 la_oenb[56]
*295 la_oenb[57]
*296 la_oenb[58]
*297 la_oenb[59]
*298 la_oenb[5]
*299 la_oenb[60]
*300 la_oenb[61]
*301 la_oenb[62]
*302 la_oenb[63]
*303 la_oenb[6]
*304 la_oenb[7]
*305 la_oenb[8]
*306 la_oenb[9]
*307 user_clock2
*308 user_irq[0]
*309 user_irq[1]
*310 user_irq[2]
*313 wb_clk_i
*314 wb_rst_i
*315 wbs_ack_o
*316 wbs_adr_i[0]
*317 wbs_adr_i[10]
*318 wbs_adr_i[11]
*319 wbs_adr_i[12]
*320 wbs_adr_i[13]
*321 wbs_adr_i[14]
*322 wbs_adr_i[15]
*323 wbs_adr_i[16]
*324 wbs_adr_i[17]
*325 wbs_adr_i[18]
*326 wbs_adr_i[19]
*327 wbs_adr_i[1]
*328 wbs_adr_i[20]
*329 wbs_adr_i[21]
*330 wbs_adr_i[22]
*331 wbs_adr_i[23]
*332 wbs_adr_i[24]
*333 wbs_adr_i[25]
*334 wbs_adr_i[26]
*335 wbs_adr_i[27]
*336 wbs_adr_i[28]
*337 wbs_adr_i[29]
*338 wbs_adr_i[2]
*339 wbs_adr_i[30]
*340 wbs_adr_i[31]
*341 wbs_adr_i[3]
*342 wbs_adr_i[4]
*343 wbs_adr_i[5]
*344 wbs_adr_i[6]
*345 wbs_adr_i[7]
*346 wbs_adr_i[8]
*347 wbs_adr_i[9]
*348 wbs_cyc_i
*349 wbs_dat_i[0]
*350 wbs_dat_i[10]
*351 wbs_dat_i[11]
*352 wbs_dat_i[12]
*353 wbs_dat_i[13]
*354 wbs_dat_i[14]
*355 wbs_dat_i[15]
*356 wbs_dat_i[16]
*357 wbs_dat_i[17]
*358 wbs_dat_i[18]
*359 wbs_dat_i[19]
*360 wbs_dat_i[1]
*361 wbs_dat_i[20]
*362 wbs_dat_i[21]
*363 wbs_dat_i[22]
*364 wbs_dat_i[23]
*365 wbs_dat_i[24]
*366 wbs_dat_i[25]
*367 wbs_dat_i[26]
*368 wbs_dat_i[27]
*369 wbs_dat_i[28]
*370 wbs_dat_i[29]
*371 wbs_dat_i[2]
*372 wbs_dat_i[30]
*373 wbs_dat_i[31]
*374 wbs_dat_i[3]
*375 wbs_dat_i[4]
*376 wbs_dat_i[5]
*377 wbs_dat_i[6]
*378 wbs_dat_i[7]
*379 wbs_dat_i[8]
*380 wbs_dat_i[9]
*381 wbs_dat_o[0]
*382 wbs_dat_o[10]
*383 wbs_dat_o[11]
*384 wbs_dat_o[12]
*385 wbs_dat_o[13]
*386 wbs_dat_o[14]
*387 wbs_dat_o[15]
*388 wbs_dat_o[16]
*389 wbs_dat_o[17]
*390 wbs_dat_o[18]
*391 wbs_dat_o[19]
*392 wbs_dat_o[1]
*393 wbs_dat_o[20]
*394 wbs_dat_o[21]
*395 wbs_dat_o[22]
*396 wbs_dat_o[23]
*397 wbs_dat_o[24]
*398 wbs_dat_o[25]
*399 wbs_dat_o[26]
*400 wbs_dat_o[27]
*401 wbs_dat_o[28]
*402 wbs_dat_o[29]
*403 wbs_dat_o[2]
*404 wbs_dat_o[30]
*405 wbs_dat_o[31]
*406 wbs_dat_o[3]
*407 wbs_dat_o[4]
*408 wbs_dat_o[5]
*409 wbs_dat_o[6]
*410 wbs_dat_o[7]
*411 wbs_dat_o[8]
*412 wbs_dat_o[9]
*413 wbs_sel_i[0]
*414 wbs_sel_i[1]
*415 wbs_sel_i[2]
*416 wbs_sel_i[3]
*417 wbs_stb_i
*418 wbs_we_i
*419 wrapped_vga_clock

*PORTS
io_in[0] I
io_in[10] I
io_in[11] I
io_in[12] I
io_in[13] I
io_in[14] I
io_in[15] I
io_in[16] I
io_in[17] I
io_in[18] I
io_in[19] I
io_in[1] I
io_in[20] I
io_in[21] I
io_in[22] I
io_in[23] I
io_in[24] I
io_in[25] I
io_in[26] I
io_in[27] I
io_in[28] I
io_in[29] I
io_in[2] I
io_in[30] I
io_in[31] I
io_in[32] I
io_in[33] I
io_in[34] I
io_in[35] I
io_in[36] I
io_in[37] I
io_in[3] I
io_in[4] I
io_in[5] I
io_in[6] I
io_in[7] I
io_in[8] I
io_in[9] I
io_oeb[0] O
io_oeb[10] O
io_oeb[11] O
io_oeb[12] O
io_oeb[13] O
io_oeb[14] O
io_oeb[15] O
io_oeb[16] O
io_oeb[17] O
io_oeb[18] O
io_oeb[19] O
io_oeb[1] O
io_oeb[20] O
io_oeb[21] O
io_oeb[22] O
io_oeb[23] O
io_oeb[24] O
io_oeb[25] O
io_oeb[26] O
io_oeb[27] O
io_oeb[28] O
io_oeb[29] O
io_oeb[2] O
io_oeb[30] O
io_oeb[31] O
io_oeb[32] O
io_oeb[33] O
io_oeb[34] O
io_oeb[35] O
io_oeb[36] O
io_oeb[37] O
io_oeb[3] O
io_oeb[4] O
io_oeb[5] O
io_oeb[6] O
io_oeb[7] O
io_oeb[8] O
io_oeb[9] O
io_out[0] O
io_out[10] O
io_out[11] O
io_out[12] O
io_out[13] O
io_out[14] O
io_out[15] O
io_out[16] O
io_out[17] O
io_out[18] O
io_out[19] O
io_out[1] O
io_out[20] O
io_out[21] O
io_out[22] O
io_out[23] O
io_out[24] O
io_out[25] O
io_out[26] O
io_out[27] O
io_out[28] O
io_out[29] O
io_out[2] O
io_out[30] O
io_out[31] O
io_out[32] O
io_out[33] O
io_out[34] O
io_out[35] O
io_out[36] O
io_out[37] O
io_out[3] O
io_out[4] O
io_out[5] O
io_out[6] O
io_out[7] O
io_out[8] O
io_out[9] O
la_data_in[0] I
la_data_in[10] I
la_data_in[11] I
la_data_in[12] I
la_data_in[13] I
la_data_in[14] I
la_data_in[15] I
la_data_in[16] I
la_data_in[17] I
la_data_in[18] I
la_data_in[19] I
la_data_in[1] I
la_data_in[20] I
la_data_in[21] I
la_data_in[22] I
la_data_in[23] I
la_data_in[24] I
la_data_in[25] I
la_data_in[26] I
la_data_in[27] I
la_data_in[28] I
la_data_in[29] I
la_data_in[2] I
la_data_in[30] I
la_data_in[31] I
la_data_in[32] I
la_data_in[33] I
la_data_in[34] I
la_data_in[35] I
la_data_in[36] I
la_data_in[37] I
la_data_in[38] I
la_data_in[39] I
la_data_in[3] I
la_data_in[40] I
la_data_in[41] I
la_data_in[42] I
la_data_in[43] I
la_data_in[44] I
la_data_in[45] I
la_data_in[46] I
la_data_in[47] I
la_data_in[48] I
la_data_in[49] I
la_data_in[4] I
la_data_in[50] I
la_data_in[51] I
la_data_in[52] I
la_data_in[53] I
la_data_in[54] I
la_data_in[55] I
la_data_in[56] I
la_data_in[57] I
la_data_in[58] I
la_data_in[59] I
la_data_in[5] I
la_data_in[60] I
la_data_in[61] I
la_data_in[62] I
la_data_in[63] I
la_data_in[6] I
la_data_in[7] I
la_data_in[8] I
la_data_in[9] I
la_data_out[0] O
la_data_out[10] O
la_data_out[11] O
la_data_out[12] O
la_data_out[13] O
la_data_out[14] O
la_data_out[15] O
la_data_out[16] O
la_data_out[17] O
la_data_out[18] O
la_data_out[19] O
la_data_out[1] O
la_data_out[20] O
la_data_out[21] O
la_data_out[22] O
la_data_out[23] O
la_data_out[24] O
la_data_out[25] O
la_data_out[26] O
la_data_out[27] O
la_data_out[28] O
la_data_out[29] O
la_data_out[2] O
la_data_out[30] O
la_data_out[31] O
la_data_out[32] O
la_data_out[33] O
la_data_out[34] O
la_data_out[35] O
la_data_out[36] O
la_data_out[37] O
la_data_out[38] O
la_data_out[39] O
la_data_out[3] O
la_data_out[40] O
la_data_out[41] O
la_data_out[42] O
la_data_out[43] O
la_data_out[44] O
la_data_out[45] O
la_data_out[46] O
la_data_out[47] O
la_data_out[48] O
la_data_out[49] O
la_data_out[4] O
la_data_out[50] O
la_data_out[51] O
la_data_out[52] O
la_data_out[53] O
la_data_out[54] O
la_data_out[55] O
la_data_out[56] O
la_data_out[57] O
la_data_out[58] O
la_data_out[59] O
la_data_out[5] O
la_data_out[60] O
la_data_out[61] O
la_data_out[62] O
la_data_out[63] O
la_data_out[6] O
la_data_out[7] O
la_data_out[8] O
la_data_out[9] O
la_oenb[0] I
la_oenb[10] I
la_oenb[11] I
la_oenb[12] I
la_oenb[13] I
la_oenb[14] I
la_oenb[15] I
la_oenb[16] I
la_oenb[17] I
la_oenb[18] I
la_oenb[19] I
la_oenb[1] I
la_oenb[20] I
la_oenb[21] I
la_oenb[22] I
la_oenb[23] I
la_oenb[24] I
la_oenb[25] I
la_oenb[26] I
la_oenb[27] I
la_oenb[28] I
la_oenb[29] I
la_oenb[2] I
la_oenb[30] I
la_oenb[31] I
la_oenb[32] I
la_oenb[33] I
la_oenb[34] I
la_oenb[35] I
la_oenb[36] I
la_oenb[37] I
la_oenb[38] I
la_oenb[39] I
la_oenb[3] I
la_oenb[40] I
la_oenb[41] I
la_oenb[42] I
la_oenb[43] I
la_oenb[44] I
la_oenb[45] I
la_oenb[46] I
la_oenb[47] I
la_oenb[48] I
la_oenb[49] I
la_oenb[4] I
la_oenb[50] I
la_oenb[51] I
la_oenb[52] I
la_oenb[53] I
la_oenb[54] I
la_oenb[55] I
la_oenb[56] I
la_oenb[57] I
la_oenb[58] I
la_oenb[59] I
la_oenb[5] I
la_oenb[60] I
la_oenb[61] I
la_oenb[62] I
la_oenb[63] I
la_oenb[6] I
la_oenb[7] I
la_oenb[8] I
la_oenb[9] I
user_clock2 I
user_irq[0] O
user_irq[1] O
user_irq[2] O
wb_clk_i I
wb_rst_i I
wbs_ack_o O
wbs_adr_i[0] I
wbs_adr_i[10] I
wbs_adr_i[11] I
wbs_adr_i[12] I
wbs_adr_i[13] I
wbs_adr_i[14] I
wbs_adr_i[15] I
wbs_adr_i[16] I
wbs_adr_i[17] I
wbs_adr_i[18] I
wbs_adr_i[19] I
wbs_adr_i[1] I
wbs_adr_i[20] I
wbs_adr_i[21] I
wbs_adr_i[22] I
wbs_adr_i[23] I
wbs_adr_i[24] I
wbs_adr_i[25] I
wbs_adr_i[26] I
wbs_adr_i[27] I
wbs_adr_i[28] I
wbs_adr_i[29] I
wbs_adr_i[2] I
wbs_adr_i[30] I
wbs_adr_i[31] I
wbs_adr_i[3] I
wbs_adr_i[4] I
wbs_adr_i[5] I
wbs_adr_i[6] I
wbs_adr_i[7] I
wbs_adr_i[8] I
wbs_adr_i[9] I
wbs_cyc_i I
wbs_dat_i[0] I
wbs_dat_i[10] I
wbs_dat_i[11] I
wbs_dat_i[12] I
wbs_dat_i[13] I
wbs_dat_i[14] I
wbs_dat_i[15] I
wbs_dat_i[16] I
wbs_dat_i[17] I
wbs_dat_i[18] I
wbs_dat_i[19] I
wbs_dat_i[1] I
wbs_dat_i[20] I
wbs_dat_i[21] I
wbs_dat_i[22] I
wbs_dat_i[23] I
wbs_dat_i[24] I
wbs_dat_i[25] I
wbs_dat_i[26] I
wbs_dat_i[27] I
wbs_dat_i[28] I
wbs_dat_i[29] I
wbs_dat_i[2] I
wbs_dat_i[30] I
wbs_dat_i[31] I
wbs_dat_i[3] I
wbs_dat_i[4] I
wbs_dat_i[5] I
wbs_dat_i[6] I
wbs_dat_i[7] I
wbs_dat_i[8] I
wbs_dat_i[9] I
wbs_dat_o[0] O
wbs_dat_o[10] O
wbs_dat_o[11] O
wbs_dat_o[12] O
wbs_dat_o[13] O
wbs_dat_o[14] O
wbs_dat_o[15] O
wbs_dat_o[16] O
wbs_dat_o[17] O
wbs_dat_o[18] O
wbs_dat_o[19] O
wbs_dat_o[1] O
wbs_dat_o[20] O
wbs_dat_o[21] O
wbs_dat_o[22] O
wbs_dat_o[23] O
wbs_dat_o[24] O
wbs_dat_o[25] O
wbs_dat_o[26] O
wbs_dat_o[27] O
wbs_dat_o[28] O
wbs_dat_o[29] O
wbs_dat_o[2] O
wbs_dat_o[30] O
wbs_dat_o[31] O
wbs_dat_o[3] O
wbs_dat_o[4] O
wbs_dat_o[5] O
wbs_dat_o[6] O
wbs_dat_o[7] O
wbs_dat_o[8] O
wbs_dat_o[9] O
wbs_sel_i[0] I
wbs_sel_i[1] I
wbs_sel_i[2] I
wbs_sel_i[3] I
wbs_stb_i I
wbs_we_i I

*D_NET *1 0.286099
*CONN
*P io_in[0] I
*I *419:io_in[0] I *D wrapped_vga_clock
*CAP
1 io_in[0] 0.00466579
2 *419:io_in[0] 0.0011599
3 *1:12 0.086614
4 *1:11 0.0854541
5 *1:9 0.0517698
6 *1:7 0.0564356
7 *1:12 *30:12 0
8 *1:12 *66:11 0
*RES
1 io_in[0] *1:7 37.305 
2 *1:7 *1:9 406.44 
3 *1:9 *1:11 4.5 
4 *1:11 *1:12 655.65 
5 *1:12 *419:io_in[0] 22.32 
*END

*D_NET *2 0.214119
*CONN
*P io_in[10] I
*I *419:io_in[10] I *D wrapped_vga_clock
*CAP
1 io_in[10] 0.00468295
2 *419:io_in[10] 0.00023698
3 *2:17 0.00551597
4 *2:12 0.015211
5 *2:11 0.00993204
6 *2:9 0.0303161
7 *2:7 0.034999
8 *2:9 *41:10 0.113225
*RES
1 io_in[10] *2:7 37.305 
2 *2:7 *2:9 374.04 
3 *2:9 *2:11 4.5 
4 *2:11 *2:12 75.69 
5 *2:12 *2:17 49.41 
6 *2:17 *419:io_in[10] 6.48 
*END

*D_NET *3 0.182701
*CONN
*P io_in[11] I
*I *419:io_in[11] I *D wrapped_vga_clock
*CAP
1 io_in[11] 0.000363112
2 *419:io_in[11] 0.00268609
3 *3:19 0.0195899
4 *3:18 0.0195776
5 *3:13 0.0713973
6 *3:11 0.0690866
7 *3:19 io_oeb[10] 0
*RES
1 io_in[11] *3:11 3.195 
2 *3:11 *3:13 434.97 
3 *3:13 *3:18 29.43 
4 *3:18 *3:19 131.85 
5 *3:19 *419:io_in[11] 32.22 
*END

*D_NET *4 0.350264
*CONN
*P io_in[12] I
*I *419:io_in[12] I *D wrapped_vga_clock
*CAP
1 io_in[12] 0.00100991
2 *419:io_in[12] 0.000789542
3 *4:14 0.00191576
4 *4:13 0.00112622
5 *4:11 0.0455873
6 *4:10 0.0455873
7 *4:8 0.0126576
8 *4:7 0.0136675
9 *4:11 *419:io_in[13] 0
10 *4:11 *419:io_in[27] 0
11 *4:11 *8:16 0.181298
12 *4:11 *52:11 0.000893611
13 *4:14 io_out[20] 0.0255963
14 *4:14 *7:11 0.0201347
*RES
1 io_in[12] *4:7 12.825 
2 *4:7 *4:8 97.11 
3 *4:8 *4:10 4.5 
4 *4:10 *4:11 576.63 
5 *4:11 *4:13 4.5 
6 *4:13 *4:14 65.61 
7 *4:14 *419:io_in[12] 10.125 
*END

*D_NET *5 0.206221
*CONN
*P io_in[13] I
*I *419:io_in[13] I *D wrapped_vga_clock
*CAP
1 io_in[13] 0.0572589
2 *419:io_in[13] 0.00339116
3 *5:8 0.0140084
4 *5:7 0.0106173
5 *5:5 0.0572589
6 *5:8 *13:17 0
7 *5:8 *17:16 0.0636867
8 *4:11 *419:io_in[13] 0
*RES
1 io_in[13] *5:5 448.245 
2 *5:5 *5:7 4.5 
3 *5:7 *5:8 162.09 
4 *5:8 *419:io_in[13] 41.49 
*END

*D_NET *6 0.190362
*CONN
*P io_in[14] I
*I *419:io_in[14] I *D wrapped_vga_clock
*CAP
1 io_in[14] 0.000264341
2 *419:io_in[14] 0.00161237
3 *6:19 0.00626593
4 *6:16 0.0332366
5 *6:15 0.0285831
6 *6:13 0.0565876
7 *6:11 0.056852
8 *6:16 *11:13 0
9 *6:19 *9:14 0.00696013
*RES
1 io_in[14] *6:11 2.655 
2 *6:11 *6:13 443.07 
3 *6:13 *6:15 4.5 
4 *6:15 *6:16 220.23 
5 *6:16 *6:19 48.33 
6 *6:19 *419:io_in[14] 24.12 
*END

*D_NET *7 0.288994
*CONN
*P io_in[15] I
*I *419:io_in[15] I *D wrapped_vga_clock
*CAP
1 io_in[15] 0.03691
2 *419:io_in[15] 0.000828272
3 *7:11 0.00435145
4 *7:10 0.00352317
5 *7:8 0.0604975
6 *7:7 0.0604975
7 *7:5 0.03691
8 *7:8 *11:16 0.0538724
9 *7:8 *32:11 0.00465589
10 *7:8 *37:11 0.00592003
11 *7:8 *38:19 5.34641e-05
12 *7:8 *61:11 0
13 *7:8 *98:9 0.000839793
14 *7:8 *100:11 0
15 *7:8 *110:11 0
16 *7:8 *111:11 0
17 *4:14 *7:11 0.0201347
*RES
1 io_in[15] *7:5 283.725 
2 *7:5 *7:7 4.5 
3 *7:7 *7:8 567.45 
4 *7:8 *7:10 4.5 
5 *7:10 *7:11 51.57 
6 *7:11 *419:io_in[15] 10.305 
*END

*D_NET *8 0.392126
*CONN
*P io_in[16] I
*I *419:io_in[16] I *D wrapped_vga_clock
*CAP
1 io_in[16] 0.000247817
2 *419:io_in[16] 0.000121656
3 *8:19 0.00796154
4 *8:18 0.00783988
5 *8:16 0.0260383
6 *8:15 0.0260383
7 *8:13 0.0361714
8 *8:11 0.0364192
9 *8:13 *41:13 0
10 *8:16 *52:11 0.0263641
11 *8:19 *11:19 0.0425678
12 *8:19 *87:8 0.000913148
13 *8:19 *88:14 0.00014428
14 *4:11 *8:16 0.181298
*RES
1 io_in[16] *8:11 2.655 
2 *8:11 *8:13 278.19 
3 *8:13 *8:15 4.5 
4 *8:15 *8:16 454.41 
5 *8:16 *8:18 4.5 
6 *8:18 *8:19 114.39 
7 *8:19 *419:io_in[16] 5.265 
*END

*D_NET *9 0.177805
*CONN
*P io_in[17] I
*I *419:io_in[17] I *D wrapped_vga_clock
*CAP
1 io_in[17] 0.00141746
2 *419:io_in[17] 0.00169029
3 *9:14 0.0436689
4 *9:13 0.0419786
5 *9:11 0.0346506
6 *9:10 0.0360681
7 *9:14 *48:16 0.0032737
8 *9:14 *92:11 0.00166699
9 *9:14 *93:11 0.00643036
10 *6:19 *9:14 0.00696013
*RES
1 io_in[17] *9:10 19.935 
2 *9:10 *9:11 266.49 
3 *9:11 *9:13 4.5 
4 *9:13 *9:14 303.03 
5 *9:14 *419:io_in[17] 24.48 
*END

*D_NET *10 0.206073
*CONN
*P io_in[18] I
*I *419:io_in[18] I *D wrapped_vga_clock
*CAP
1 io_in[18] 0.00107486
2 *419:io_in[18] 0.000334403
3 *10:14 0.0092803
4 *10:13 0.00894589
5 *10:11 0.0532841
6 *10:10 0.0532841
7 *10:8 0.00747897
8 *10:7 0.00855383
9 *10:8 *86:14 0.0175012
10 *10:14 *22:19 0.00419659
11 *10:14 *44:8 0.0421392
12 *10:14 *53:8 0
13 *10:14 *84:8 0
14 *10:14 *113:14 0
*RES
1 io_in[18] *10:7 12.825 
2 *10:7 *10:8 79.29 
3 *10:8 *10:10 4.5 
4 *10:10 *10:11 407.43 
5 *10:11 *10:13 4.5 
6 *10:13 *10:14 128.97 
7 *10:14 *419:io_in[18] 6.525 
*END

*D_NET *11 0.232557
*CONN
*P io_in[19] I
*I *419:io_in[19] I *D wrapped_vga_clock
*CAP
1 io_in[19] 0.000178873
2 *419:io_in[19] 8.29261e-05
3 *11:19 0.00110373
4 *11:18 0.0010208
5 *11:16 0.00929913
6 *11:15 0.00929913
7 *11:13 0.0368922
8 *11:11 0.0370711
9 *11:16 *61:11 0
10 *11:16 *100:11 0
11 *11:16 *110:11 0
12 *11:19 *87:8 0.0408818
13 *11:19 *88:14 0.000286996
14 *6:16 *11:13 0
15 *7:8 *11:16 0.0538724
16 *8:19 *11:19 0.0425678
*RES
1 io_in[19] *11:11 2.115 
2 *11:11 *11:13 283.59 
3 *11:13 *11:15 4.5 
4 *11:15 *11:16 135.63 
5 *11:16 *11:18 4.5 
6 *11:18 *11:19 113.31 
7 *11:19 *419:io_in[19] 5.085 
*END

*D_NET *12 0.268897
*CONN
*P io_in[1] I
*I *419:io_in[1] I *D wrapped_vga_clock
*CAP
1 io_in[1] 0.000370905
2 *419:io_in[1] 0.000304304
3 *12:19 0.0154483
4 *12:18 0.015144
5 *12:16 0.0760461
6 *12:15 0.0760461
7 *12:13 0.0425829
8 *12:11 0.0429538
*RES
1 io_in[1] *12:11 3.195 
2 *12:11 *12:13 335.07 
3 *12:13 *12:15 4.5 
4 *12:15 *12:16 583.29 
5 *12:16 *12:18 4.5 
6 *12:18 *12:19 116.01 
7 *12:19 *419:io_in[1] 11.52 
*END

*D_NET *13 0.19125
*CONN
*P io_in[20] I
*I *419:io_in[20] I *D wrapped_vga_clock
*CAP
1 io_in[20] 0.00180027
2 *419:io_in[20] 0.00144
3 *13:17 0.0118314
4 *13:16 0.0103914
5 *13:14 0.00642837
6 *13:13 0.00642837
7 *13:11 0.0345544
8 *13:10 0.0363547
9 *419:io_in[20] *68:11 0.00172419
10 *419:io_in[20] *101:16 0.00509955
11 *13:10 *87:11 0
12 *13:14 *43:11 0.0382789
13 *13:17 *17:16 0
14 *13:17 *55:11 0.0369186
15 *5:8 *13:17 0
*RES
1 io_in[20] *13:10 22.455 
2 *13:10 *13:11 265.77 
3 *13:11 *13:13 4.5 
4 *13:13 *13:14 96.03 
5 *13:14 *13:16 4.5 
6 *13:16 *13:17 123.12 
7 *13:17 *419:io_in[20] 32.85 
*END

*D_NET *14 0.123045
*CONN
*P io_in[21] I
*I *419:io_in[21] I *D wrapped_vga_clock
*CAP
1 io_in[21] 0.00135201
2 *419:io_in[21] 0.00238932
3 *14:14 0.0260756
4 *14:13 0.0236863
5 *14:11 0.0339676
6 *14:10 0.0353196
7 *14:10 *54:14 0.000254726
*RES
1 io_in[21] *14:10 19.935 
2 *14:10 *14:11 261.45 
3 *14:11 *14:13 4.5 
4 *14:13 *14:14 184.23 
5 *14:14 *419:io_in[21] 29.52 
*END

*D_NET *15 0.133849
*CONN
*P io_in[22] I
*I *419:io_in[22] I *D wrapped_vga_clock
*CAP
1 io_in[22] 0.00483482
2 *419:io_in[22] 0.00129814
3 *15:17 0.0057742
4 *15:12 0.0212594
5 *15:11 0.0167833
6 *15:9 0.0332768
7 *15:7 0.0381116
8 *15:12 *102:5 0.0125111
*RES
1 io_in[22] *15:7 37.305 
2 *15:7 *15:9 255.24 
3 *15:9 *15:11 4.5 
4 *15:11 *15:12 174.15 
5 *15:12 *15:17 42.75 
6 *15:17 *419:io_in[22] 9.585 
*END

*D_NET *16 0.153615
*CONN
*P io_in[23] I
*I *419:io_in[23] I *D wrapped_vga_clock
*CAP
1 io_in[23] 0.000345489
2 *419:io_in[23] 0.0374707
3 *16:15 0.0374707
4 *16:13 0.0389915
5 *16:11 0.039337
*RES
1 io_in[23] *16:11 3.195 
2 *16:11 *16:13 299.61 
3 *16:13 *16:15 4.5 
4 *16:15 *419:io_in[23] 291.645 
*END

*D_NET *17 0.300846
*CONN
*P io_in[24] I
*I *419:io_in[24] I *D wrapped_vga_clock
*CAP
1 io_in[24] 0.000201168
2 *419:io_in[24] 0
3 *17:28 0.00237128
4 *17:16 0.0339303
5 *17:15 0.031559
6 *17:13 0.0803158
7 *17:11 0.080517
8 *17:16 *419:io_in[28] 0.000266183
9 *17:16 *57:11 0
10 *17:16 *107:11 0
11 *17:28 *55:11 0.0079988
12 *5:8 *17:16 0.0636867
13 *13:17 *17:16 0
*RES
1 io_in[24] *17:11 1.935 
2 *17:11 *17:13 508.41 
3 *17:13 *17:15 4.5 
4 *17:15 *17:16 321.57 
5 *17:16 *17:28 45.54 
6 *17:28 *419:io_in[24] 4.5 
*END

*D_NET *18 0.203196
*CONN
*P io_in[25] I
*I *419:io_in[25] I *D wrapped_vga_clock
*CAP
1 io_in[25] 0.000125876
2 *419:io_in[25] 0.00508018
3 *18:16 0.0467957
4 *18:15 0.0417155
5 *18:13 0.0546762
6 *18:11 0.0548021
*RES
1 io_in[25] *18:11 1.395 
2 *18:11 *18:13 346.41 
3 *18:13 *18:15 4.5 
4 *18:15 *18:16 318.69 
5 *18:16 *419:io_in[25] 35.685 
*END

*D_NET *19 0.135203
*CONN
*P io_in[26] I
*I *419:io_in[26] I *D wrapped_vga_clock
*CAP
1 io_in[26] 0.00179421
2 *419:io_in[26] 0.00386758
3 *19:12 0.0229351
4 *19:11 0.0190675
5 *19:9 0.0428721
6 *19:7 0.0446663
*RES
1 io_in[26] *19:7 13.185 
2 *19:7 *19:9 336.24 
3 *19:9 *19:11 4.5 
4 *19:11 *19:12 145.35 
5 *19:12 *419:io_in[26] 32.985 
*END

*D_NET *20 0.131466
*CONN
*P io_in[27] I
*I *419:io_in[27] I *D wrapped_vga_clock
*CAP
1 io_in[27] 0.00035683
2 *419:io_in[27] 0.00164616
3 *20:16 0.00953959
4 *20:15 0.00789343
5 *20:13 0.0558366
6 *20:11 0.0561935
7 *419:io_in[27] *97:11 0
8 *4:11 *419:io_in[27] 0
*RES
1 io_in[27] *20:11 3.015 
2 *20:11 *20:13 435.51 
3 *20:13 *20:15 4.5 
4 *20:15 *20:16 59.67 
5 *20:16 *419:io_in[27] 27.81 
*END

*D_NET *21 0.170759
*CONN
*P io_in[28] I
*I *419:io_in[28] I *D wrapped_vga_clock
*CAP
1 io_in[28] 0.0312392
2 *419:io_in[28] 0.00137473
3 *21:9 0.0112687
4 *21:7 0.00999004
5 *21:5 0.0313353
6 *419:io_in[28] *40:13 0.000169942
7 *419:io_in[28] *55:16 0.000984306
8 *419:io_in[28] *57:11 0.00380797
9 *419:io_in[28] *61:11 1.47681e-05
10 *419:io_in[28] *70:5 0.000403897
11 *21:5 *24:19 0.015471
12 *21:5 *69:5 0.030198
13 *21:9 *24:19 0.0113933
14 *21:9 *35:19 0.00839718
15 *21:9 *55:16 0.000231272
16 *21:9 *69:5 0
17 *21:9 *70:5 0.00768583
18 *21:9 *79:13 0.00169236
19 *21:9 *81:13 0.00363516
20 *21:9 *98:9 0.00120003
21 *17:16 *419:io_in[28] 0.000266183
*RES
1 io_in[28] *21:5 353.115 
2 *21:5 *21:7 0.63 
3 *21:7 *21:9 147.78 
4 *21:9 *419:io_in[28] 36.99 
*END

*D_NET *22 0.206543
*CONN
*P io_in[29] I
*I *419:io_in[29] I *D wrapped_vga_clock
*CAP
1 io_in[29] 0.000177869
2 *419:io_in[29] 0.000272478
3 *22:19 0.00222394
4 *22:18 0.00195146
5 *22:16 0.00790188
6 *22:15 0.00790188
7 *22:13 0.0462751
8 *22:11 0.046453
9 *22:13 *67:7 0
10 *22:19 *42:8 0.0420664
11 *22:19 *44:8 0.0261125
12 *22:19 *60:14 0.00181316
13 *22:19 *95:8 0.0155234
14 *22:19 *114:11 0.00367313
15 *10:14 *22:19 0.00419659
*RES
1 io_in[29] *22:11 1.935 
2 *22:11 *22:13 359.91 
3 *22:13 *22:15 4.5 
4 *22:15 *22:16 60.21 
5 *22:16 *22:18 4.5 
6 *22:18 *22:19 140.49 
7 *22:19 *419:io_in[29] 6.165 
*END

*D_NET *23 0.23169
*CONN
*P io_in[2] I
*I *419:io_in[2] I *D wrapped_vga_clock
*CAP
1 io_in[2] 0.000167227
2 *419:io_in[2] 0.000304304
3 *23:19 0.0330084
4 *23:18 0.0327041
5 *23:16 0.05761
6 *23:15 0.05761
7 *23:13 0.0250593
8 *23:11 0.0252265
*RES
1 io_in[2] *23:11 2.115 
2 *23:11 *23:13 197.37 
3 *23:13 *23:15 4.5 
4 *23:15 *23:16 442.89 
5 *23:16 *23:18 4.5 
6 *23:18 *23:19 253.71 
7 *23:19 *419:io_in[2] 11.52 
*END

*D_NET *24 0.219436
*CONN
*P io_in[30] I
*I *419:io_in[30] I *D wrapped_vga_clock
*CAP
1 io_in[30] 0.00312894
2 *419:io_in[30] 0.000212844
3 *24:19 0.0404357
4 *24:18 0.0402229
5 *24:16 0.0179418
6 *24:15 0.0210707
7 *24:15 *314:16 0
8 *24:16 *28:16 0.000245553
9 *24:19 *81:13 0.00362864
10 *24:19 *98:9 0.0656846
11 *21:5 *24:19 0.015471
12 *21:9 *24:19 0.0113933
*RES
1 io_in[30] *24:15 28.665 
2 *24:15 *24:16 137.79 
3 *24:16 *24:18 4.5 
4 *24:18 *24:19 411.75 
5 *24:19 *419:io_in[30] 14.76 
*END

*D_NET *25 0.137386
*CONN
*P io_in[31] I
*I *419:io_in[31] I *D wrapped_vga_clock
*CAP
1 io_in[31] 0.00177706
2 *419:io_in[31] 2.87269e-05
3 *25:12 0.0101903
4 *25:11 0.0101615
5 *25:9 0.0567257
6 *25:7 0.0585027
7 *25:9 *73:10 0
*RES
1 io_in[31] *25:7 13.185 
2 *25:7 *25:9 442.98 
3 *25:9 *25:11 4.5 
4 *25:11 *25:12 76.59 
5 *25:12 *419:io_in[31] 0.225 
*END

*D_NET *26 0.247075
*CONN
*P io_in[32] I
*I *419:io_in[32] I *D wrapped_vga_clock
*CAP
1 io_in[32] 0.000323383
2 *419:io_in[32] 0.00137109
3 *26:16 0.0153798
4 *26:15 0.0140087
5 *26:13 0.0661719
6 *26:11 0.0664953
7 *26:16 *66:11 0.0833249
*RES
1 io_in[32] *26:11 3.015 
2 *26:11 *26:13 515.43 
3 *26:13 *26:15 4.5 
4 *26:15 *26:16 212.31 
5 *26:16 *419:io_in[32] 23.94 
*END

*D_NET *27 0.172662
*CONN
*P io_in[33] I
*I *419:io_in[33] I *D wrapped_vga_clock
*CAP
1 io_in[33] 0.00385806
2 *419:io_in[33] 0.0449257
3 *27:18 0.0449257
4 *27:16 0.0375471
5 *27:15 0.0414052
*RES
1 io_in[33] *27:15 34.785 
2 *27:15 *27:16 288.45 
3 *27:16 *27:18 4.5 
4 *27:18 *419:io_in[33] 349.785 
*END

*D_NET *28 0.284626
*CONN
*P io_in[34] I
*I *419:io_in[34] I *D wrapped_vga_clock
*CAP
1 io_in[34] 0.00312523
2 *419:io_in[34] 0.00113798
3 *28:19 0.0265461
4 *28:18 0.0254082
5 *28:16 0.0356061
6 *28:15 0.0387313
7 *28:19 *314:16 0.153825
8 *24:16 *28:16 0.000245553
*RES
1 io_in[34] *28:15 28.845 
2 *28:15 *28:16 274.23 
3 *28:16 *28:18 4.5 
4 *28:18 *28:19 385.11 
5 *28:19 *419:io_in[34] 12.105 
*END

*D_NET *29 0.20037
*CONN
*P io_in[35] I
*I *419:io_in[35] I *D wrapped_vga_clock
*CAP
1 io_in[35] 0.000113196
2 *419:io_in[35] 0.000304505
3 *29:22 0.042473
4 *29:21 0.0421685
5 *29:19 0.0123923
6 *29:18 0.015682
7 *29:13 0.0450899
8 *29:11 0.0419134
9 *29:18 *105:15 0.000233283
*RES
1 io_in[35] *29:11 1.395 
2 *29:11 *29:13 327.51 
3 *29:13 *29:18 34.65 
4 *29:18 *29:19 96.03 
5 *29:19 *29:21 4.5 
6 *29:21 *29:22 323.73 
7 *29:22 *419:io_in[35] 2.385 
*END

*D_NET *30 0.245402
*CONN
*P io_in[36] I
*I *419:io_in[36] I *D wrapped_vga_clock
*CAP
1 io_in[36] 0.00177706
2 *419:io_in[36] 0.0012664
3 *30:12 0.0571561
4 *30:11 0.0558897
5 *30:9 0.063768
6 *30:7 0.0655451
7 *1:12 *30:12 0
*RES
1 io_in[36] *30:7 13.185 
2 *30:7 *30:9 499.68 
3 *30:9 *30:11 4.5 
4 *30:11 *30:12 429.39 
5 *30:12 *419:io_in[36] 21.06 
*END

*D_NET *31 0.249294
*CONN
*P io_in[37] I
*I *419:io_in[37] I *D wrapped_vga_clock
*CAP
1 io_in[37] 0.000323383
2 *419:io_in[37] 0.00584209
3 *31:16 0.0817619
4 *31:15 0.0759198
5 *31:13 0.0425619
6 *31:11 0.0428853
*RES
1 io_in[37] *31:11 3.015 
2 *31:11 *31:13 332.91 
3 *31:13 *31:15 4.5 
4 *31:15 *31:16 583.83 
5 *31:16 *419:io_in[37] 49.185 
*END

*D_NET *32 0.313774
*CONN
*P io_in[3] I
*I *419:io_in[3] I *D wrapped_vga_clock
*CAP
1 io_in[3] 0.0520036
2 *419:io_in[3] 0.0003399
3 *32:11 0.00327423
4 *32:10 0.00293433
5 *32:8 0.0613904
6 *32:7 0.0613904
7 *32:5 0.0520036
8 *32:11 *35:19 0.000719881
9 *32:11 *37:11 0.0268173
10 *32:11 *38:19 0.0332252
11 *32:11 *98:9 0.0150195
12 *7:8 *32:11 0.00465589
*RES
1 io_in[3] *32:5 407.925 
2 *32:5 *32:7 4.5 
3 *32:7 *32:8 470.25 
4 *32:8 *32:10 4.5 
5 *32:10 *32:11 132.75 
6 *32:11 *419:io_in[3] 15.12 
*END

*D_NET *33 0.200384
*CONN
*P io_in[4] I
*I *419:io_in[4] I *D wrapped_vga_clock
*CAP
1 io_in[4] 0.0002319
2 *419:io_in[4] 0.000304304
3 *33:19 0.0419925
4 *33:18 0.0416882
5 *33:16 0.041843
6 *33:15 0.041843
7 *33:13 0.0161246
8 *33:11 0.0163565
*RES
1 io_in[4] *33:11 2.655 
2 *33:11 *33:13 127.17 
3 *33:13 *33:15 4.5 
4 *33:15 *33:16 321.39 
5 *33:16 *33:18 4.5 
6 *33:18 *33:19 323.91 
7 *33:19 *419:io_in[4] 11.52 
*END

*D_NET *34 0.189837
*CONN
*P io_in[5] I
*I *419:io_in[5] I *D wrapped_vga_clock
*CAP
1 io_in[5] 0.00466579
2 *419:io_in[5] 0.000174631
3 *34:15 0.042122
4 *34:14 0.0419474
5 *34:12 0.0369241
6 *34:11 0.0369241
7 *34:9 0.0112064
8 *34:7 0.0158722
*RES
1 io_in[5] *34:7 37.305 
2 *34:7 *34:9 87.84 
3 *34:9 *34:11 4.5 
4 *34:11 *34:12 283.59 
5 *34:12 *34:14 4.5 
6 *34:14 *34:15 326.61 
7 *34:15 *419:io_in[5] 10.44 
*END

*D_NET *35 0.235497
*CONN
*P io_in[6] I
*I *419:io_in[6] I *D wrapped_vga_clock
*CAP
1 io_in[6] 0.000370905
2 *419:io_in[6] 0.000212844
3 *35:19 0.00418474
4 *35:18 0.0039719
5 *35:16 0.0367822
6 *35:15 0.0367822
7 *35:13 0.0527243
8 *35:11 0.0530952
9 *35:16 *47:13 0
10 *35:19 *38:19 0.0311681
11 *35:19 *40:13 0.000219217
12 *35:19 *55:16 0.00362994
13 *35:19 *70:5 0
14 *35:19 *98:9 0.00323799
15 *35:19 *112:21 0
16 *21:9 *35:19 0.00839718
17 *32:11 *35:19 0.000719881
*RES
1 io_in[6] *35:11 3.195 
2 *35:11 *35:13 413.37 
3 *35:13 *35:15 4.5 
4 *35:15 *35:16 280.89 
5 *35:16 *35:18 4.5 
6 *35:18 *35:19 96.03 
7 *35:19 *419:io_in[6] 14.76 
*END

*D_NET *36 0.152832
*CONN
*P io_in[7] I
*I *419:io_in[7] I *D wrapped_vga_clock
*CAP
1 io_in[7] 0.000167227