*SPEF "ieee 1481-1999"
*DESIGN "user_project_wrapper"
*DATE "11:11:11 Fri 11 11, 1111"
*VENDOR "OpenRCX"
*PROGRAM "Parallel Extraction"
*VERSION "1.0"
*DESIGN_FLOW "NAME_SCOPE LOCAL" "PIN_CAP NONE"
*DIVIDER /
*DELIMITER :
*BUS_DELIMITER []
*T_UNIT 1 NS
*C_UNIT 1 PF
*R_UNIT 1 OHM
*L_UNIT 1 HENRY

*NAME_MAP
*1 io_in[0]
*2 io_in[10]
*3 io_in[11]
*4 io_in[12]
*5 io_in[13]
*6 io_in[14]
*7 io_in[15]
*8 io_in[16]
*9 io_in[17]
*10 io_in[18]
*11 io_in[19]
*12 io_in[1]
*13 io_in[20]
*14 io_in[21]
*15 io_in[22]
*16 io_in[23]
*17 io_in[24]
*18 io_in[25]
*19 io_in[26]
*20 io_in[27]
*21 io_in[28]
*22 io_in[29]
*23 io_in[2]
*24 io_in[30]
*25 io_in[31]
*26 io_in[32]
*27 io_in[33]
*28 io_in[34]
*29 io_in[35]
*30 io_in[36]
*31 io_in[37]
*32 io_in[3]
*33 io_in[4]
*34 io_in[5]
*35 io_in[6]
*36 io_in[7]
*37 io_in[8]
*38 io_in[9]
*39 io_oeb[0]
*40 io_oeb[10]
*41 io_oeb[11]
*42 io_oeb[12]
*43 io_oeb[13]
*44 io_oeb[14]
*45 io_oeb[15]
*46 io_oeb[16]
*47 io_oeb[17]
*48 io_oeb[18]
*49 io_oeb[19]
*50 io_oeb[1]
*51 io_oeb[20]
*52 io_oeb[21]
*53 io_oeb[22]
*54 io_oeb[23]
*55 io_oeb[24]
*56 io_oeb[25]
*57 io_oeb[26]
*58 io_oeb[27]
*59 io_oeb[28]
*60 io_oeb[29]
*61 io_oeb[2]
*62 io_oeb[30]
*63 io_oeb[31]
*64 io_oeb[32]
*65 io_oeb[33]
*66 io_oeb[34]
*67 io_oeb[35]
*68 io_oeb[36]
*69 io_oeb[37]
*70 io_oeb[3]
*71 io_oeb[4]
*72 io_oeb[5]
*73 io_oeb[6]
*74 io_oeb[7]
*75 io_oeb[8]
*76 io_oeb[9]
*77 io_out[0]
*78 io_out[10]
*79 io_out[11]
*80 io_out[12]
*81 io_out[13]
*82 io_out[14]
*83 io_out[15]
*84 io_out[16]
*85 io_out[17]
*86 io_out[18]
*87 io_out[19]
*88 io_out[1]
*89 io_out[20]
*90 io_out[21]
*91 io_out[22]
*92 io_out[23]
*93 io_out[24]
*94 io_out[25]
*95 io_out[26]
*96 io_out[27]
*97 io_out[28]
*98 io_out[29]
*99 io_out[2]
*100 io_out[30]
*101 io_out[31]
*102 io_out[32]
*103 io_out[33]
*104 io_out[34]
*105 io_out[35]
*106 io_out[36]
*107 io_out[37]
*108 io_out[3]
*109 io_out[4]
*110 io_out[5]
*111 io_out[6]
*112 io_out[7]
*113 io_out[8]
*114 io_out[9]
*115 la_data_in[0]
*116 la_data_in[10]
*117 la_data_in[11]
*118 la_data_in[12]
*119 la_data_in[13]
*120 la_data_in[14]
*121 la_data_in[15]
*122 la_data_in[16]
*123 la_data_in[17]
*124 la_data_in[18]
*125 la_data_in[19]
*126 la_data_in[1]
*127 la_data_in[20]
*128 la_data_in[21]
*129 la_data_in[22]
*130 la_data_in[23]
*131 la_data_in[24]
*132 la_data_in[25]
*133 la_data_in[26]
*134 la_data_in[27]
*135 la_data_in[28]
*136 la_data_in[29]
*137 la_data_in[2]
*138 la_data_in[30]
*139 la_data_in[31]
*140 la_data_in[32]
*141 la_data_in[33]
*142 la_data_in[34]
*143 la_data_in[35]
*144 la_data_in[36]
*145 la_data_in[37]
*146 la_data_in[38]
*147 la_data_in[39]
*148 la_data_in[3]
*149 la_data_in[40]
*150 la_data_in[41]
*151 la_data_in[42]
*152 la_data_in[43]
*153 la_data_in[44]
*154 la_data_in[45]
*155 la_data_in[46]
*156 la_data_in[47]
*157 la_data_in[48]
*158 la_data_in[49]
*159 la_data_in[4]
*160 la_data_in[50]
*161 la_data_in[51]
*162 la_data_in[52]
*163 la_data_in[53]
*164 la_data_in[54]
*165 la_data_in[55]
*166 la_data_in[56]
*167 la_data_in[57]
*168 la_data_in[58]
*169 la_data_in[59]
*170 la_data_in[5]
*171 la_data_in[60]
*172 la_data_in[61]
*173 la_data_in[62]
*174 la_data_in[63]
*175 la_data_in[6]
*176 la_data_in[7]
*177 la_data_in[8]
*178 la_data_in[9]
*179 la_data_out[0]
*180 la_data_out[10]
*181 la_data_out[11]
*182 la_data_out[12]
*183 la_data_out[13]
*184 la_data_out[14]
*185 la_data_out[15]
*186 la_data_out[16]
*187 la_data_out[17]
*188 la_data_out[18]
*189 la_data_out[19]
*190 la_data_out[1]
*191 la_data_out[20]
*192 la_data_out[21]
*193 la_data_out[22]
*194 la_data_out[23]
*195 la_data_out[24]
*196 la_data_out[25]
*197 la_data_out[26]
*198 la_data_out[27]
*199 la_data_out[28]
*200 la_data_out[29]
*201 la_data_out[2]
*202 la_data_out[30]
*203 la_data_out[31]
*204 la_data_out[32]
*205 la_data_out[33]
*206 la_data_out[34]
*207 la_data_out[35]
*208 la_data_out[36]
*209 la_data_out[37]
*210 la_data_out[38]
*211 la_data_out[39]
*212 la_data_out[3]
*213 la_data_out[40]
*214 la_data_out[41]
*215 la_data_out[42]
*216 la_data_out[43]
*217 la_data_out[44]
*218 la_data_out[45]
*219 la_data_out[46]
*220 la_data_out[47]
*221 la_data_out[48]
*222 la_data_out[49]
*223 la_data_out[4]
*224 la_data_out[50]
*225 la_data_out[51]
*226 la_data_out[52]
*227 la_data_out[53]
*228 la_data_out[54]
*229 la_data_out[55]
*230 la_data_out[56]
*231 la_data_out[57]
*232 la_data_out[58]
*233 la_data_out[59]
*234 la_data_out[5]
*235 la_data_out[60]
*236 la_data_out[61]
*237 la_data_out[62]
*238 la_data_out[63]
*239 la_data_out[6]
*240 la_data_out[7]
*241 la_data_out[8]
*242 la_data_out[9]
*243 la_oenb[0]
*244 la_oenb[10]
*245 la_oenb[11]
*246 la_oenb[12]
*247 la_oenb[13]
*248 la_oenb[14]
*249 la_oenb[15]
*250 la_oenb[16]
*251 la_oenb[17]
*252 la_oenb[18]
*253 la_oenb[19]
*254 la_oenb[1]
*255 la_oenb[20]
*256 la_oenb[21]
*257 la_oenb[22]
*258 la_oenb[23]
*259 la_oenb[24]
*260 la_oenb[25]
*261 la_oenb[26]
*262 la_oenb[27]
*263 la_oenb[28]
*264 la_oenb[29]
*265 la_oenb[2]
*266 la_oenb[30]
*267 la_oenb[31]
*268 la_oenb[32]
*269 la_oenb[33]
*270 la_oenb[34]
*271 la_oenb[35]
*272 la_oenb[36]
*273 la_oenb[37]
*274 la_oenb[38]
*275 la_oenb[39]
*276 la_oenb[3]
*277 la_oenb[40]
*278 la_oenb[41]
*279 la_oenb[42]
*280 la_oenb[43]
*281 la_oenb[44]
*282 la_oenb[45]
*283 la_oenb[46]
*284 la_oenb[47]
*285 la_oenb[48]
*286 la_oenb[49]
*287 la_oenb[4]
*288 la_oenb[50]
*289 la_oenb[51]
*290 la_oenb[52]
*291 la_oenb[53]
*292 la_oenb[54]
*293 la_oenb[55]
*294 la_oenb[56]
*295 la_oenb[57]
*296 la_oenb[58]
*297 la_oenb[59]
*298 la_oenb[5]
*299 la_oenb[60]
*300 la_oenb[61]
*301 la_oenb[62]
*302 la_oenb[63]
*303 la_oenb[6]
*304 la_oenb[7]
*305 la_oenb[8]
*306 la_oenb[9]
*307 user_clock2
*308 user_irq[0]
*309 user_irq[1]
*310 user_irq[2]
*313 wb_clk_i
*314 wb_rst_i
*315 wbs_ack_o
*316 wbs_adr_i[0]
*317 wbs_adr_i[10]
*318 wbs_adr_i[11]
*319 wbs_adr_i[12]
*320 wbs_adr_i[13]
*321 wbs_adr_i[14]
*322 wbs_adr_i[15]
*323 wbs_adr_i[16]
*324 wbs_adr_i[17]
*325 wbs_adr_i[18]
*326 wbs_adr_i[19]
*327 wbs_adr_i[1]
*328 wbs_adr_i[20]
*329 wbs_adr_i[21]
*330 wbs_adr_i[22]
*331 wbs_adr_i[23]
*332 wbs_adr_i[24]
*333 wbs_adr_i[25]
*334 wbs_adr_i[26]
*335 wbs_adr_i[27]
*336 wbs_adr_i[28]
*337 wbs_adr_i[29]
*338 wbs_adr_i[2]
*339 wbs_adr_i[30]
*340 wbs_adr_i[31]
*341 wbs_adr_i[3]
*342 wbs_adr_i[4]
*343 wbs_adr_i[5]
*344 wbs_adr_i[6]
*345 wbs_adr_i[7]
*346 wbs_adr_i[8]
*347 wbs_adr_i[9]
*348 wbs_cyc_i
*349 wbs_dat_i[0]
*350 wbs_dat_i[10]
*351 wbs_dat_i[11]
*352 wbs_dat_i[12]
*353 wbs_dat_i[13]
*354 wbs_dat_i[14]
*355 wbs_dat_i[15]
*356 wbs_dat_i[16]
*357 wbs_dat_i[17]
*358 wbs_dat_i[18]
*359 wbs_dat_i[19]
*360 wbs_dat_i[1]
*361 wbs_dat_i[20]
*362 wbs_dat_i[21]
*363 wbs_dat_i[22]
*364 wbs_dat_i[23]
*365 wbs_dat_i[24]
*366 wbs_dat_i[25]
*367 wbs_dat_i[26]
*368 wbs_dat_i[27]
*369 wbs_dat_i[28]
*370 wbs_dat_i[29]
*371 wbs_dat_i[2]
*372 wbs_dat_i[30]
*373 wbs_dat_i[31]
*374 wbs_dat_i[3]
*375 wbs_dat_i[4]
*376 wbs_dat_i[5]
*377 wbs_dat_i[6]
*378 wbs_dat_i[7]
*379 wbs_dat_i[8]
*380 wbs_dat_i[9]
*381 wbs_dat_o[0]
*382 wbs_dat_o[10]
*383 wbs_dat_o[11]
*384 wbs_dat_o[12]
*385 wbs_dat_o[13]
*386 wbs_dat_o[14]
*387 wbs_dat_o[15]
*388 wbs_dat_o[16]
*389 wbs_dat_o[17]
*390 wbs_dat_o[18]
*391 wbs_dat_o[19]
*392 wbs_dat_o[1]
*393 wbs_dat_o[20]
*394 wbs_dat_o[21]
*395 wbs_dat_o[22]
*396 wbs_dat_o[23]
*397 wbs_dat_o[24]
*398 wbs_dat_o[25]
*399 wbs_dat_o[26]
*400 wbs_dat_o[27]
*401 wbs_dat_o[28]
*402 wbs_dat_o[29]
*403 wbs_dat_o[2]
*404 wbs_dat_o[30]
*405 wbs_dat_o[31]
*406 wbs_dat_o[3]
*407 wbs_dat_o[4]
*408 wbs_dat_o[5]
*409 wbs_dat_o[6]
*410 wbs_dat_o[7]
*411 wbs_dat_o[8]
*412 wbs_dat_o[9]
*413 wbs_sel_i[0]
*414 wbs_sel_i[1]
*415 wbs_sel_i[2]
*416 wbs_sel_i[3]
*417 wbs_stb_i
*418 wbs_we_i
*419 wrapped_vga_clock

*PORTS
io_in[0] I
io_in[10] I
io_in[11] I
io_in[12] I
io_in[13] I
io_in[14] I
io_in[15] I
io_in[16] I
io_in[17] I
io_in[18] I
io_in[19] I
io_in[1] I
io_in[20] I
io_in[21] I
io_in[22] I
io_in[23] I
io_in[24] I
io_in[25] I
io_in[26] I
io_in[27] I
io_in[28] I
io_in[29] I
io_in[2] I
io_in[30] I
io_in[31] I
io_in[32] I
io_in[33] I
io_in[34] I
io_in[35] I
io_in[36] I
io_in[37] I
io_in[3] I
io_in[4] I
io_in[5] I
io_in[6] I
io_in[7] I
io_in[8] I
io_in[9] I
io_oeb[0] O
io_oeb[10] O
io_oeb[11] O
io_oeb[12] O
io_oeb[13] O
io_oeb[14] O
io_oeb[15] O
io_oeb[16] O
io_oeb[17] O
io_oeb[18] O
io_oeb[19] O
io_oeb[1] O
io_oeb[20] O
io_oeb[21] O
io_oeb[22] O
io_oeb[23] O
io_oeb[24] O
io_oeb[25] O
io_oeb[26] O
io_oeb[27] O
io_oeb[28] O
io_oeb[29] O
io_oeb[2] O
io_oeb[30] O
io_oeb[31] O
io_oeb[32] O
io_oeb[33] O
io_oeb[34] O
io_oeb[35] O
io_oeb[36] O
io_oeb[37] O
io_oeb[3] O
io_oeb[4] O
io_oeb[5] O
io_oeb[6] O
io_oeb[7] O
io_oeb[8] O
io_oeb[9] O
io_out[0] O
io_out[10] O
io_out[11] O
io_out[12] O
io_out[13] O
io_out[14] O
io_out[15] O
io_out[16] O
io_out[17] O
io_out[18] O
io_out[19] O
io_out[1] O
io_out[20] O
io_out[21] O
io_out[22] O
io_out[23] O
io_out[24] O
io_out[25] O
io_out[26] O
io_out[27] O
io_out[28] O
io_out[29] O
io_out[2] O
io_out[30] O
io_out[31] O
io_out[32] O
io_out[33] O
io_out[34] O
io_out[35] O
io_out[36] O
io_out[37] O
io_out[3] O
io_out[4] O
io_out[5] O
io_out[6] O
io_out[7] O
io_out[8] O
io_out[9] O
la_data_in[0] I
la_data_in[10] I
la_data_in[11] I
la_data_in[12] I
la_data_in[13] I
la_data_in[14] I
la_data_in[15] I
la_data_in[16] I
la_data_in[17] I
la_data_in[18] I
la_data_in[19] I
la_data_in[1] I
la_data_in[20] I
la_data_in[21] I
la_data_in[22] I
la_data_in[23] I
la_data_in[24] I
la_data_in[25] I
la_data_in[26] I
la_data_in[27] I
la_data_in[28] I
la_data_in[29] I
la_data_in[2] I
la_data_in[30] I
la_data_in[31] I
la_data_in[32] I
la_data_in[33] I
la_data_in[34] I
la_data_in[35] I
la_data_in[36] I
la_data_in[37] I
la_data_in[38] I
la_data_in[39] I
la_data_in[3] I
la_data_in[40] I
la_data_in[41] I
la_data_in[42] I
la_data_in[43] I
la_data_in[44] I
la_data_in[45] I
la_data_in[46] I
la_data_in[47] I
la_data_in[48] I
la_data_in[49] I
la_data_in[4] I
la_data_in[50] I
la_data_in[51] I
la_data_in[52] I
la_data_in[53] I
la_data_in[54] I
la_data_in[55] I
la_data_in[56] I
la_data_in[57] I
la_data_in[58] I
la_data_in[59] I
la_data_in[5] I
la_data_in[60] I
la_data_in[61] I
la_data_in[62] I
la_data_in[63] I
la_data_in[6] I
la_data_in[7] I
la_data_in[8] I
la_data_in[9] I
la_data_out[0] O
la_data_out[10] O
la_data_out[11] O
la_data_out[12] O
la_data_out[13] O
la_data_out[14] O
la_data_out[15] O
la_data_out[16] O
la_data_out[17] O
la_data_out[18] O
la_data_out[19] O
la_data_out[1] O
la_data_out[20] O
la_data_out[21] O
la_data_out[22] O
la_data_out[23] O
la_data_out[24] O
la_data_out[25] O
la_data_out[26] O
la_data_out[27] O
la_data_out[28] O
la_data_out[29] O
la_data_out[2] O
la_data_out[30] O
la_data_out[31] O
la_data_out[32] O
la_data_out[33] O
la_data_out[34] O
la_data_out[35] O
la_data_out[36] O
la_data_out[37] O
la_data_out[38] O
la_data_out[39] O
la_data_out[3] O
la_data_out[40] O
la_data_out[41] O
la_data_out[42] O
la_data_out[43] O
la_data_out[44] O
la_data_out[45] O
la_data_out[46] O
la_data_out[47] O
la_data_out[48] O
la_data_out[49] O
la_data_out[4] O
la_data_out[50] O
la_data_out[51] O
la_data_out[52] O
la_data_out[53] O
la_data_out[54] O
la_data_out[55] O
la_data_out[56] O
la_data_out[57] O
la_data_out[58] O
la_data_out[59] O
la_data_out[5] O
la_data_out[60] O
la_data_out[61] O
la_data_out[62] O
la_data_out[63] O
la_data_out[6] O
la_data_out[7] O
la_data_out[8] O
la_data_out[9] O
la_oenb[0] I
la_oenb[10] I
la_oenb[11] I
la_oenb[12] I
la_oenb[13] I
la_oenb[14] I
la_oenb[15] I
la_oenb[16] I
la_oenb[17] I
la_oenb[18] I
la_oenb[19] I
la_oenb[1] I
la_oenb[20] I
la_oenb[21] I
la_oenb[22] I
la_oenb[23] I
la_oenb[24] I
la_oenb[25] I
la_oenb[26] I
la_oenb[27] I
la_oenb[28] I
la_oenb[29] I
la_oenb[2] I
la_oenb[30] I
la_oenb[31] I
la_oenb[32] I
la_oenb[33] I
la_oenb[34] I
la_oenb[35] I
la_oenb[36] I
la_oenb[37] I
la_oenb[38] I
la_oenb[39] I
la_oenb[3] I
la_oenb[40] I
la_oenb[41] I
la_oenb[42] I
la_oenb[43] I
la_oenb[44] I
la_oenb[45] I
la_oenb[46] I
la_oenb[47] I
la_oenb[48] I
la_oenb[49] I
la_oenb[4] I
la_oenb[50] I
la_oenb[51] I
la_oenb[52] I
la_oenb[53] I
la_oenb[54] I
la_oenb[55] I
la_oenb[56] I
la_oenb[57] I
la_oenb[58] I
la_oenb[59] I
la_oenb[5] I
la_oenb[60] I
la_oenb[61] I
la_oenb[62] I
la_oenb[63] I
la_oenb[6] I
la_oenb[7] I
la_oenb[8] I
la_oenb[9] I
user_clock2 I
user_irq[0] O
user_irq[1] O
user_irq[2] O
wb_clk_i I
wb_rst_i I
wbs_ack_o O
wbs_adr_i[0] I
wbs_adr_i[10] I
wbs_adr_i[11] I
wbs_adr_i[12] I
wbs_adr_i[13] I
wbs_adr_i[14] I
wbs_adr_i[15] I
wbs_adr_i[16] I
wbs_adr_i[17] I
wbs_adr_i[18] I
wbs_adr_i[19] I
wbs_adr_i[1] I
wbs_adr_i[20] I
wbs_adr_i[21] I
wbs_adr_i[22] I
wbs_adr_i[23] I
wbs_adr_i[24] I
wbs_adr_i[25] I
wbs_adr_i[26] I
wbs_adr_i[27] I
wbs_adr_i[28] I
wbs_adr_i[29] I
wbs_adr_i[2] I
wbs_adr_i[30] I
wbs_adr_i[31] I
wbs_adr_i[3] I
wbs_adr_i[4] I
wbs_adr_i[5] I
wbs_adr_i[6] I
wbs_adr_i[7] I
wbs_adr_i[8] I
wbs_adr_i[9] I
wbs_cyc_i I
wbs_dat_i[0] I
wbs_dat_i[10] I
wbs_dat_i[11] I
wbs_dat_i[12] I
wbs_dat_i[13] I
wbs_dat_i[14] I
wbs_dat_i[15] I
wbs_dat_i[16] I
wbs_dat_i[17] I
wbs_dat_i[18] I
wbs_dat_i[19] I
wbs_dat_i[1] I
wbs_dat_i[20] I
wbs_dat_i[21] I
wbs_dat_i[22] I
wbs_dat_i[23] I
wbs_dat_i[24] I
wbs_dat_i[25] I
wbs_dat_i[26] I
wbs_dat_i[27] I
wbs_dat_i[28] I
wbs_dat_i[29] I
wbs_dat_i[2] I
wbs_dat_i[30] I
wbs_dat_i[31] I
wbs_dat_i[3] I
wbs_dat_i[4] I
wbs_dat_i[5] I
wbs_dat_i[6] I
wbs_dat_i[7] I
wbs_dat_i[8] I
wbs_dat_i[9] I
wbs_dat_o[0] O
wbs_dat_o[10] O
wbs_dat_o[11] O
wbs_dat_o[12] O
wbs_dat_o[13] O
wbs_dat_o[14] O
wbs_dat_o[15] O
wbs_dat_o[16] O
wbs_dat_o[17] O
wbs_dat_o[18] O
wbs_dat_o[19] O
wbs_dat_o[1] O
wbs_dat_o[20] O
wbs_dat_o[21] O
wbs_dat_o[22] O
wbs_dat_o[23] O
wbs_dat_o[24] O
wbs_dat_o[25] O
wbs_dat_o[26] O
wbs_dat_o[27] O
wbs_dat_o[28] O
wbs_dat_o[29] O
wbs_dat_o[2] O
wbs_dat_o[30] O
wbs_dat_o[31] O
wbs_dat_o[3] O
wbs_dat_o[4] O
wbs_dat_o[5] O
wbs_dat_o[6] O
wbs_dat_o[7] O
wbs_dat_o[8] O
wbs_dat_o[9] O
wbs_sel_i[0] I
wbs_sel_i[1] I
wbs_sel_i[2] I
wbs_sel_i[3] I
wbs_stb_i I
wbs_we_i I

*D_NET *1 0.194351
*CONN
*P io_in[0] I
*I *419:io_in[0] I *D wrapped_vga_clock
*CAP
1 io_in[0] 0.00336627
2 *419:io_in[0] 0.000830991
3 *1:12 0.0343335
4 *1:11 0.0335025
5 *1:9 0.0572169
6 *1:7 0.0605832
7 *1:12 *21:16 0.000113545
8 *1:12 *57:8 0
9 *1:12 *66:8 0.00440371
*RES
1 io_in[0] *1:7 37.305 
2 *1:7 *1:9 627.84 
3 *1:9 *1:11 4.5 
4 *1:11 *1:12 353.79 
5 *1:12 *419:io_in[0] 12.645 
*END

*D_NET *2 0.194733
*CONN
*P io_in[10] I
*I *419:io_in[10] I *D wrapped_vga_clock
*CAP
1 io_in[10] 0.00340899
2 *419:io_in[10] 0.0140486
3 *2:14 0.0140486
4 *2:12 0.0355252
5 *2:11 0.0355252
6 *2:9 0.0443837
7 *2:7 0.0477927
*RES
1 io_in[10] *2:7 37.305 
2 *2:7 *2:9 484.74 
3 *2:9 *2:11 4.5 
4 *2:11 *2:12 353.79 
5 *2:12 *2:14 4.5 
6 *2:14 *419:io_in[10] 151.245 
*END

*D_NET *3 0.224892
*CONN
*P io_in[11] I
*I *419:io_in[11] I *D wrapped_vga_clock
*CAP
1 io_in[11] 0.00025457
2 *419:io_in[11] 0.000252292
3 *3:16 0.0345199
4 *3:15 0.0342676
5 *3:13 0.0776713
6 *3:11 0.0779259
7 *3:16 *91:16 0
*RES
1 io_in[11] *3:11 3.195 
2 *3:11 *3:13 760.23 
3 *3:13 *3:15 4.5 
4 *3:15 *3:16 342.09 
5 *3:16 *419:io_in[11] 11.5904 
*END

*D_NET *4 0.487975
*CONN
*P io_in[12] I
*I *419:io_in[12] I *D wrapped_vga_clock
*CAP
1 io_in[12] 0.000731295
2 *419:io_in[12] 0.000677067
3 *4:14 0.00512728
4 *4:13 0.00445021
5 *4:11 0.0705451
6 *4:10 0.0705451
7 *4:8 0.0208446
8 *4:7 0.0215759
9 *4:8 *79:14 0.202969
10 *4:11 *73:14 0
11 *4:14 *7:13 0.00777426
12 *4:14 *71:8 0.00668995
13 *4:14 *114:8 0.0760445
*RES
1 io_in[12] *4:7 12.645 
2 *4:7 *4:8 340.11 
3 *4:8 *4:10 4.5 
4 *4:10 *4:11 765.99 
5 *4:11 *4:13 4.5 
6 *4:13 *4:14 111.51 
7 *4:14 *419:io_in[12] 10.485 
*END

*D_NET *5 0.220841
*CONN
*P io_in[13] I
*I *419:io_in[13] I *D wrapped_vga_clock
*CAP
1 io_in[13] 0.0626378
2 *419:io_in[13] 0.000378631
3 *5:8 0.047429
4 *5:7 0.0470504
5 *5:5 0.0626378
6 *5:8 *419:io_in[21] 0.0007071
*RES
1 io_in[13] *5:5 684.585 
2 *5:5 *5:7 4.5 
3 *5:7 *5:8 471.69 
4 *5:8 *419:io_in[13] 12.9052 
*END

*D_NET *6 0.236566
*CONN
*P io_in[14] I
*I *419:io_in[14] I *D wrapped_vga_clock
*CAP
1 io_in[14] 0.000186415
2 *419:io_in[14] 0.000378631
3 *6:16 0.0536098
4 *6:15 0.0532312
5 *6:13 0.0641421
6 *6:11 0.0643286
7 *6:16 *38:16 0
8 *6:16 *93:13 0.000689199
*RES
1 io_in[14] *6:11 2.655 
2 *6:11 *6:13 700.83 
3 *6:13 *6:15 4.5 
4 *6:15 *6:16 533.79 
5 *6:16 *419:io_in[14] 12.9052 
*END

*D_NET *7 0.476758
*CONN
*P io_in[15] I
*I *419:io_in[15] I *D wrapped_vga_clock
*CAP
1 io_in[15] 0.0589672
2 *419:io_in[15] 0.000683931
3 *7:13 0.0029325
4 *7:8 0.0580182
5 *7:7 0.0557696
6 *7:5 0.0589672
7 *7:8 *11:16 0.224246
8 *7:8 *15:17 0.0014299
9 *7:8 *55:13 4.14464e-05
10 *7:8 *69:7 0.000746036
11 *7:8 *101:13 0.00491141
12 *7:13 *71:8 0.0022709
13 *4:14 *7:13 0.00777426
*RES
1 io_in[15] *7:5 588.825 
2 *7:5 *7:7 4.5 
3 *7:7 *7:8 756.81 
4 *7:8 *7:13 46.53 
5 *7:13 *419:io_in[15] 6.345 
*END

*D_NET *8 0.329984
*CONN
*P io_in[16] I
*I *419:io_in[16] I *D wrapped_vga_clock
*CAP
1 io_in[16] 0.000194772
2 *419:io_in[16] 0.00118063
3 *8:19 0.0104169
4 *8:18 0.00923632
5 *8:16 0.0603722
6 *8:15 0.0603722
7 *8:13 0.0524871
8 *8:11 0.0526819
9 *8:16 *73:14 0
10 *8:19 *74:8 0.0830414
*RES
1 io_in[16] *8:11 2.655 
2 *8:11 *8:13 524.07 
3 *8:13 *8:15 4.5 
4 *8:15 *8:16 654.03 
5 *8:16 *8:18 4.5 
6 *8:18 *8:19 145.53 
7 *8:19 *419:io_in[16] 16.065 
*END

*D_NET *9 0.283795
*CONN
*P io_in[17] I
*I *419:io_in[17] I *D wrapped_vga_clock
*CAP
1 io_in[17] 0.000794415
2 *419:io_in[17] 0.0016455
3 *9:14 0.0345951
4 *9:13 0.0329496
5 *9:11 0.0568572
6 *9:10 0.0568572
7 *9:8 0.00582111
8 *9:7 0.00661552
9 *9:8 *10:8 0.00254896
10 *9:8 *83:11 0.0244948
11 *9:14 *111:13 0.0606156
*RES
1 io_in[17] *9:7 12.465 
2 *9:7 *9:8 110.07 
3 *9:8 *9:10 4.5 
4 *9:10 *9:11 567.45 
5 *9:11 *9:13 4.5 
6 *9:13 *9:14 395.55 
7 *9:14 *419:io_in[17] 29.383 
*END

*D_NET *10 0.57453
*CONN
*P io_in[18] I
*I *419:io_in[18] I *D wrapped_vga_clock
*CAP
1 io_in[18] 0.000818101
2 *419:io_in[18] 0.000635821
3 *10:14 0.00282837
4 *10:13 0.00219255
5 *10:11 0.0685204
6 *10:10 0.0685204
7 *10:8 0.0109655
8 *10:7 0.0117836
9 *10:8 *83:11 0.0976688
10 *10:8 *86:14 0.0843644
11 *10:8 *87:11 0.12092
12 *10:14 *45:10 0.00292197
13 *10:14 *47:10 0.0197078
14 *10:14 *53:13 0.0119987
15 *10:14 *59:8 0.0439519
16 *10:14 *64:8 0.00963632
17 *10:14 *75:11 0.0131164
18 *10:14 *84:8 0.0014299
19 *10:14 *99:10 0
20 *10:14 *108:10 0
21 *9:8 *10:8 0.00254896
*RES
1 io_in[18] *10:7 12.645 
2 *10:7 *10:8 316.89 
3 *10:8 *10:10 4.5 
4 *10:10 *10:11 682.83 
5 *10:11 *10:13 4.5 
6 *10:13 *10:14 88.83 
7 *10:14 *419:io_in[18] 10.125 
*END

*D_NET *11 0.4438
*CONN
*P io_in[19] I
*I *419:io_in[19] I *D wrapped_vga_clock
*CAP
1 io_in[19] 0.00014121
2 *419:io_in[19] 7.83558e-05
3 *11:19 0.00261535
4 *11:18 0.002537
5 *11:16 0.0166328
6 *11:15 0.0166328
7 *11:13 0.0589684
8 *11:11 0.0591096
9 *11:16 *40:12 0.000705627
10 *11:16 *70:11 0
11 *11:19 *15:17 0.0201926
12 *11:19 *50:8 0.00536015
13 *11:19 *79:10 0.0183513
14 *11:19 *87:8 0.0115386
15 *11:19 *109:10 0.00668995
16 *7:8 *11:16 0.224246
*RES
1 io_in[19] *11:11 2.115 
2 *11:11 *11:13 588.69 
3 *11:13 *11:15 4.5 
4 *11:15 *11:16 324.63 
5 *11:16 *11:18 4.5 
6 *11:18 *11:19 84.15 
7 *11:19 *419:io_in[19] 5.265 
*END

*D_NET *12 0.18101
*CONN
*P io_in[1] I
*I *419:io_in[1] I *D wrapped_vga_clock
*CAP
1 io_in[1] 0.000257266
2 *419:io_in[1] 0.0146097
3 *12:18 0.0146097
4 *12:16 0.0286439
5 *12:15 0.0286439
6 *12:13 0.046994
7 *12:11 0.0472512
*RES
1 io_in[1] *12:11 3.195 
2 *12:11 *12:13 515.97 
3 *12:13 *12:15 4.5 
4 *12:15 *12:16 285.21 
5 *12:16 *12:18 4.5 
6 *12:18 *419:io_in[1] 156.645 
*END

*D_NET *13 0.161985
*CONN
*P io_in[20] I
*I *419:io_in[20] I *D wrapped_vga_clock
*CAP
1 io_in[20] 0.068233
2 *419:io_in[20] 0.00231596
3 *13:8 0.0127458
4 *13:7 0.0104299
5 *13:5 0.068233
6 *419:io_in[20] *47:14 2.71992e-05
*RES
1 io_in[20] *13:5 680.625 
2 *13:5 *13:7 4.5 
3 *13:7 *13:8 101.43 
4 *13:8 *419:io_in[20] 32.535 
*END

*D_NET *14 0.133753
*CONN
*P io_in[21] I
*I *419:io_in[21] I *D wrapped_vga_clock
*CAP
1 io_in[21] 0.00219212
2 *419:io_in[21] 0.00112253
3 *14:11 0.0586425
4 *14:10 0.0597121
5 *419:io_in[21] *49:11 0
6 *14:10 io_out[21] 0.00851726
7 *14:10 *87:11 0.0028598
8 *14:11 *100:12 0
9 *5:8 *419:io_in[21] 0.0007071
*RES
1 io_in[21] *14:10 41.715 
2 *14:10 *14:11 574.29 
3 *14:11 *419:io_in[21] 30.6274 
*END

*D_NET *15 0.144745
*CONN
*P io_in[22] I
*I *419:io_in[22] I *D wrapped_vga_clock
*CAP
1 io_in[22] 0.0037316
2 *419:io_in[22] 0.000122764
3 *15:17 0.00212818
4 *15:9 0.0571196
5 *15:7 0.0588458
6 *15:9 *91:16 0.000490239
7 *15:17 *69:7 0.000683868
8 *7:8 *15:17 0.0014299
9 *11:19 *15:17 0.0201926
*RES
1 io_in[22] *15:7 37.305 
2 *15:7 *15:9 552.6 
3 *15:9 *15:17 49.32 
4 *15:17 *419:io_in[22] 0.945 
*END

*D_NET *16 0.148108
*CONN
*P io_in[23] I
*I *419:io_in[23] I *D wrapped_vga_clock
*CAP
1 io_in[23] 0.00161926
2 *419:io_in[23] 0.0080462
3 *16:13 0.0080462
4 *16:11 0.0591976
5 *16:10 0.0608168
6 *16:10 *54:14 0.0103824
*RES
1 io_in[23] *16:10 32.175 
2 *16:10 *16:11 591.21 
3 *16:11 *16:13 4.5 
4 *16:13 *419:io_in[23] 85.365 
*END

*D_NET *17 0.205295
*CONN
*P io_in[24] I
*I *419:io_in[24] I *D wrapped_vga_clock
*CAP
1 io_in[24] 0.000142137
2 *419:io_in[24] 0.00014207
3 *17:16 0.0595554
4 *17:15 0.0594133
5 *17:13 0.0291406
6 *17:11 0.0292827
7 *17:16 *26:16 0.0149757
8 *17:16 *40:12 0.00153439
9 *17:16 *55:14 0
10 *17:16 *107:8 0.011109
*RES
1 io_in[24] *17:11 1.935 
2 *17:11 *17:13 285.75 
3 *17:13 *17:15 4.5 
4 *17:15 *17:16 627.57 
5 *17:16 *419:io_in[24] 5.985 
*END

*D_NET *18 0.155835
*CONN
*P io_in[25] I
*I *419:io_in[25] I *D wrapped_vga_clock
*CAP
1 io_in[25] 8.93818e-05
2 *419:io_in[25] 0.0095265
3 *18:18 0.0095265
4 *18:16 0.0594369
5 *18:15 0.0594369
6 *18:13 0.00886476
7 *18:11 0.00895415
*RES
1 io_in[25] *18:11 1.395 
2 *18:11 *18:13 87.21 
3 *18:13 *18:15 4.5 
4 *18:15 *18:16 593.55 
5 *18:16 *18:18 4.5 
6 *18:18 *419:io_in[25] 101.565 
*END

*D_NET *19 0.124325
*CONN
*P io_in[26] I
*I *419:io_in[26] I *D wrapped_vga_clock
*CAP
1 io_in[26] 0.00123228
2 *419:io_in[26] 0.00157035
3 *19:12 0.0462186
4 *19:11 0.0446482
5 *19:9 0.0147115
6 *19:7 0.0159438
*RES
1 io_in[26] *19:7 13.185 
2 *19:7 *19:9 160.74 
3 *19:9 *19:11 4.5 
4 *19:11 *19:12 446.13 
5 *19:12 *419:io_in[26] 19.665 
*END

*D_NET *20 0.119049
*CONN
*P io_in[27] I
*I *419:io_in[27] I *D wrapped_vga_clock
*CAP
1 io_in[27] 0.000253241
2 *419:io_in[27] 0.000925634
3 *20:16 0.0371804
4 *20:15 0.0362548
5 *20:13 0.0214381
6 *20:11 0.0216913
7 *419:io_in[27] *49:11 0
8 *419:io_in[27] *52:13 0.00130557
*RES
1 io_in[27] *20:11 3.015 
2 *20:11 *20:13 233.01 
3 *20:13 *20:15 4.5 
4 *20:15 *20:16 362.07 
5 *20:16 *419:io_in[27] 27.7474 
*END

*D_NET *21 0.300482
*CONN
*P io_in[28] I
*I *419:io_in[28] I *D wrapped_vga_clock
*CAP
1 io_in[28] 0.000182736
2 *419:io_in[28] 0.000721204
3 *21:16 0.0179088
4 *21:15 0.0171876
5 *21:13 0.0269256
6 *21:11 0.0271084
7 *21:16 *57:8 0.210335
8 *1:12 *21:16 0.000113545
*RES
1 io_in[28] *21:11 2.475 
2 *21:11 *21:13 291.33 
3 *21:13 *21:15 4.5 
4 *21:15 *21:16 308.43 
5 *21:16 *419:io_in[28] 11.565 
*END

*D_NET *22 0.209204
*CONN
*P io_in[29] I
*I *419:io_in[29] I *D wrapped_vga_clock
*CAP
1 io_in[29] 0.000132518
2 *419:io_in[29] 0.000317452
3 *22:19 0.00202594
4 *22:18 0.00170849
5 *22:16 0.0334002
6 *22:15 0.0334002
7 *22:13 0.0152455
8 *22:11 0.015378
9 *22:19 *44:8 0.0343795
10 *22:19 *53:14 0.00224847
11 *22:19 *73:8 0.0573821
12 *22:19 *95:8 0.00754325
13 *22:19 *109:11 0.00604285
*RES
1 io_in[29] *22:11 1.935 
2 *22:11 *22:13 165.51 
3 *22:13 *22:15 4.5 
4 *22:15 *22:16 332.91 
5 *22:16 *22:18 4.5 
6 *22:18 *22:19 115.83 
7 *22:19 *419:io_in[29] 7.245 
*END

*D_NET *23 0.156186
*CONN
*P io_in[2] I
*I *419:io_in[2] I *D wrapped_vga_clock
*CAP
1 io_in[2] 0.000125412
2 *419:io_in[2] 0.0163452
3 *23:18 0.0163452
4 *23:16 0.016364
5 *23:15 0.016364
6 *23:13 0.0452584
7 *23:11 0.0453838
*RES
1 io_in[2] *23:11 2.115 
2 *23:11 *23:13 497.07 
3 *23:13 *23:15 4.5 
4 *23:15 *23:16 163.17 
5 *23:16 *23:18 4.5 
6 *23:18 *419:io_in[2] 175.545 
*END

*D_NET *24 0.0783582
*CONN
*P io_in[30] I
*I *419:io_in[30] I *D wrapped_vga_clock
*CAP
1 io_in[30] 8.47422e-05
2 *419:io_in[30] 0.00111356
3 *24:16 0.0170666
4 *24:15 0.015953
5 *24:13 0.0210502
6 *24:11 0.021135
7 *419:io_in[30] *49:11 0
8 *419:io_in[30] *52:13 0.00180292
9 *419:io_in[30] *98:11 0
10 *24:16 *49:10 0.000152161
11 *24:16 *52:14 0
*RES
1 io_in[30] *24:11 1.395 
2 *24:11 *24:13 227.61 
3 *24:13 *24:15 4.5 
4 *24:15 *24:16 159.57 
5 *24:16 *419:io_in[30] 29.9074 
*END

*D_NET *25 0.117043
*CONN
*P io_in[31] I
*I *419:io_in[31] I *D wrapped_vga_clock
*CAP
1 io_in[31] 0.00124651
2 *419:io_in[31] 0.000643714
3 *25:15 0.0113374
4 *25:14 0.0106937
5 *25:12 0.0201154
6 *25:11 0.0201154
7 *25:9 0.00885578
8 *25:7 0.0101023
9 *419:io_in[31] *53:13 5.21694e-05
10 *25:15 *53:14 0
11 *25:15 *63:8 0.0139253
12 *25:15 *96:10 0.0199554
*RES
1 io_in[31] *25:7 13.185 
2 *25:7 *25:9 95.94 
3 *25:9 *25:11 4.5 
4 *25:11 *25:12 200.07 
5 *25:12 *25:14 4.5 
6 *25:14 *25:15 137.97 
7 *25:15 *419:io_in[31] 10.575 
*END

*D_NET *26 0.0850684
*CONN
*P io_in[32] I
*I *419:io_in[32] I *D wrapped_vga_clock
*CAP
1 io_in[32] 0.000240014
2 *419:io_in[32] 0.000202416
3 *26:16 0.00478404
4 *26:15 0.00458163
5 *26:13 0.0266773
6 *26:11 0.0269173
7 *26:16 *107:8 0.00668995
8 *17:16 *26:16 0.0149757
*RES
1 io_in[32] *26:11 3.015 
2 *26:11 *26:13 286.11 
3 *26:13 *26:15 4.5 
4 *26:15 *26:16 75.69 
5 *26:16 *419:io_in[32] 6.345 
*END

*D_NET *27 0.0358893
*CONN
*P io_in[33] I
*I *419:io_in[33] I *D wrapped_vga_clock
*CAP
1 io_in[33] 0.000180294
2 *419:io_in[33] 0.0092151
3 *27:18 0.00939345
4 *27:13 0.00854925
5 *27:11 0.00855119
*RES
1 io_in[33] *27:11 2.475 
2 *27:11 *27:13 91.17 
3 *27:13 *27:18 10.71 
4 *27:18 *419:io_in[33] 97.605 
*END

*D_NET *28 0.0411965
*CONN
*P io_in[34] I
*I *419:io_in[34] I *D wrapped_vga_clock
*CAP
1 io_in[34] 0.000132518
2 *419:io_in[34] 0.00109494
3 *28:13 0.0204657
4 *28:11 0.0195033
5 *28:13 *314:16 0
*RES
1 io_in[34] *28:11 1.935 
2 *28:11 *28:13 211.05 
3 *28:13 *419:io_in[34] 14.625 
*END

*D_NET *29 0.057255
*CONN
*P io_in[35] I
*I *419:io_in[35] I *D wrapped_vga_clock
*CAP
1 io_in[35] 0.00241972
2 *419:io_in[35] 0.000147297
3 *29:22 0.0057042
4 *29:21 0.0055569
5 *29:19 0.0182038
6 *29:18 0.0205036
7 *29:15 0.00471948
8 *29:19 *66:11 0
*RES
1 io_in[35] *29:15 31.005 
2 *29:15 *29:18 27.45 
3 *29:18 *29:19 198.63 
4 *29:19 *29:21 4.5 
5 *29:21 *29:22 54.81 
6 *29:22 *419:io_in[35] 1.485 
*END

*D_NET *30 0.175863
*CONN
*P io_in[36] I
*I *419:io_in[36] I *D wrapped_vga_clock
*CAP
1 io_in[36] 0.00123228
2 *419:io_in[36] 0.00014207
3 *30:12 0.00813969
4 *30:11 0.00799762
5 *30:9 0.0249494
6 *30:7 0.0261817
7 *30:12 *45:13 0.000724234
8 *30:12 *68:10 0.00111397
9 *30:12 *68:12 0
10 *30:12 *107:8 0.105382
*RES
1 io_in[36] *30:7 13.185 
2 *30:7 *30:9 272.88 
3 *30:9 *30:11 4.5 
4 *30:11 *30:12 154.53 
5 *30:12 *419:io_in[36] 5.985 
*END

*D_NET *31 0.0934581
*CONN
*P io_in[37] I
*I *419:io_in[37] I *D wrapped_vga_clock
*CAP
1 io_in[37] 0.000240014
2 *419:io_in[37] 0.00883198
3 *31:18 0.00883198
4 *31:16 0.0289097
5 *31:15 0.0289097
6 *31:13 0.00874735
7 *31:11 0.00898736
*RES
1 io_in[37] *31:11 3.015 
2 *31:11 *31:13 95.31 
3 *31:13 *31:15 4.5 
4 *31:15 *31:16 288.45 
5 *31:16 *31:18 4.5 
6 *31:18 *419:io_in[37] 93.465 
*END

*D_NET *32 0.219104
*CONN
*P io_in[3] I
*I *419:io_in[3] I *D wrapped_vga_clock
*CAP
1 io_in[3] 0.0600853
2 *419:io_in[3] 0.000302502
3 *32:11 0.00336037
4 *32:10 0.00305787
5 *32:8 0.0169599
6 *32:7 0.0169599
7 *32:5 0.0600853
8 *32:8 *60:8 0
9 *32:11 *70:11 0.0555172
10 *32:11 *79:11 0.00277586
*RES
1 io_in[3] *32:5 659.025 
2 *32:5 *32:7 4.5 
3 *32:7 *32:8 167.67 
4 *32:8 *32:10 4.5 
5 *32:10 *32:11 80.37 
6 *32:11 *419:io_in[3] 16.3174 
*END

*D_NET *33 0.145185
*CONN
*P io_in[4] I
*I *419:io_in[4] I *D wrapped_vga_clock
*CAP
1 io_in[4] 0.00138055
2 *419:io_in[4] 0.0673341
3 *33:10 0.0712118
4 *33:7 0.00525821
*RES
1 io_in[4] *33:7 18.225 
2 *33:7 *33:10 43.11 
3 *33:10 *419:io_in[4] 658.845 
*END

*D_NET *34 0.125012
*CONN
*P io_in[5] I
*I *419:io_in[5] I *D wrapped_vga_clock
*CAP
1 io_in[5] 0.00336627
2 *419:io_in[5] 0.0028157
3 *34:9 0.0591395
4 *34:7 0.0596901
5 *34:9 *76:5 0
*RES
1 io_in[5] *34:7 37.305 
2 *34:7 *34:9 615.06 
3 *34:9 *419:io_in[5] 34.875 
*END

*D_NET *35 0.242168
*CONN
*P io_in[6] I
*I *419:io_in[6] I *D wrapped_vga_clock
*CAP
1 io_in[6] 0.000257266
2 *419:io_in[6] 0.000986417
3 *35:19 0.00992841
4 *35:18 0.0104383
5 *35:13 0.0512109
6 *35:11 0.0499718
7 *35:19 *419:io_in[8] 7.14953e-05
8 *35:19 *49:11 0.119304
*RES
1 io_in[6] *35:11 3.195 
2 *35:11 *35:13 542.97 
3 *35:13 *35:18 23.85 
4 *35:18 *35:19 172.71 
5 *35:19 *419:io_in[6] 22.9774 
*END

*D_NET *36 0.153075
*CONN
*P io_in[7] I
*I *419:io_in[7] I *D wrapped_vga_clock
*CAP
1 io_in[7] 0.000125412
2 *419:io_in[7] 0.0153612
3 *36:18 0.0153612
4 *36:16 0.0145807
5 *36:15 0.0145807
6 *36:13 0.0464702
7 *36:11 0.0465956
*RES
1 io_in[7] *36:11 2.115 
2 *36:11 *36:13 507.87 
3 *36:13 *36:15 4.5 
4 *36:15 *36:16 144.81 
5 *36:16 *36:18 4.5 
6 *36:18 *419:io_in[7] 164.745 
*END

*D_NET *37 0.161892
*CONN
*P io_in[8] I
*I *419:io_in[8] I *D wrapped_vga_clock
*CAP
1 io_in[8] 0.0652527
2 *419:io_in[8] 0.00126636
3 *37:8 0.0156576
4 *37:7 0.0143913
5 *37:5 0.0652527
6 *419:io_in[8] *100:13 0
7 *35:19 *419:io_in[8] 7.14953e-05
*RES
1 io_in[8] *37:5 710.325 
2 *37:5 *37:7 4.5 
3 *37:7 *37:8 143.37 
4 *37:8 *419:io_in[8] 30.6274 
*END

*D_NET *38 0.175625
*CONN
*P io_in[9] I
*I *419:io_in[9] I *D wrapped_vga_clock
*CAP
1 io_in[9] 0.000182043
2 *419:io_in[9] 0.00100668
3 *38:16 0.021887
4 *38:15 0.0208803
5 *38:13 0.0644688
6 *38:11 0.0646509
7 *419:io_in[9] *49:11 0
8 *419:io_in[9] *93:13 0.00254896
9 *419:io_in[9] *93:14 0
10 *6:16 *38:16 0
*RES
1 io_in[9] *38:11 2.655 
2 *38:11 *38:13 702.27 
3 *38:13 *38:15 4.5 
4 *38:15 *38:16 208.17 
5 *38:16 *419:io_in[9] 29.5474 
*END

*D_NET *39 0.211126
*CONN
*P io_oeb[0] O
*I *419:io_oeb[0] O *D wrapped_vga_clock
*CAP
1 io_oeb[0] 0.0590321
2 *419:io_oeb[0] 0.000655246